@<TRIPOS>MOLECULE
mol 
   28    28     1     0     0
SMALL
bcc


@<TRIPOS>ATOM
      1 C1         28.5420    3.8380   52.9780 c3        1 mol         0.4836
      2 C2         28.4010    2.8170   54.1530 c3        1 mol         0.0666
      3 C3         27.7390    1.5530   53.5710 c3        1 mol         0.0376
      4 C4         26.3210    1.9200   53.0610 c3        1 mol         0.2878
      5 C5         26.4180    3.0370   51.9480 c3        1 mol         0.0767
      6 C6         25.0400    3.5570   51.3710 c3        1 mol         0.3708
      7 O1         29.3450    3.3110   51.8790 os        1 mol        -0.5969
      8 O2         27.6660    0.4680   54.5170 oh        1 mol        -0.7021
      9 O3         25.6560    0.7460   52.5770 oh        1 mol        -1.0681
     10 O4         27.1730    4.1800   52.5200 os        1 mol        -0.5149
     11 O5         23.9990    3.5700   52.3760 oh        1 mol        -1.0668
     12 F1         29.5080    2.5110   54.9070 f         1 mol        -0.3249
     13 P1         30.9370    3.1800   51.8210 p5        1 mol        -0.1776
     14 O6         31.3510    2.3240   52.9630 oh        1 mol        -0.5805
     15 O7         31.3900    2.6140   50.5120 o         1 mol        -0.6431
     16 O8         31.4430    4.6100   51.9550 oh        1 mol        -0.5803
     17 H1         29.0910    4.7670   53.3450 h2        1 mol        -0.1409
     18 H2         27.7690    3.3460   54.9400 h1        1 mol        -0.0138
     19 H3         28.3910    1.1830   52.7120 h1        1 mol         0.0193
     20 H4         25.7030    2.3410   53.9220 h1        1 mol        -0.0875
     21 H5         26.9390    2.5550   51.0560 h1        1 mol        -0.0309
     22 H6         25.1830    4.6170   50.9760 h1        1 mol        -0.1838
     23 H7         24.7170    2.8460   50.5400 h1        1 mol        -0.1775
     24 H8         26.6120    0.2310   54.7230 ho        1 mol         0.4038
     25 H9         24.5670    0.8900   52.6360 ho        1 mol         0.0363
     26 H10        23.7280    2.5360   52.6370 ho        1 mol         0.3591
     27 H11        31.9200    1.4010   52.7800 ho        1 mol         0.3739
     28 H12        32.0430    5.0590   51.1500 ho        1 mol         0.3739
@<TRIPOS>BOND
     1    1    2 1   
     2    1    7 1   
     3    1   10 1   
     4    1   17 1   
     5    2    3 1   
     6    2   12 1   
     7    2   18 1   
     8    3    4 1   
     9    3    8 1   
    10    3   19 1   
    11    4    5 1   
    12    4    9 1   
    13    4   20 1   
    14    5    6 1   
    15    5   10 1   
    16    5   21 1   
    17    6   11 1   
    18    6   22 1   
    19    6   23 1   
    20    7   13 1   
    21    8   24 1   
    22    9   25 1   
    23   11   26 1   
    24   13   14 1   
    25   13   15 2   
    26   13   16 1   
    27   14   27 1   
    28   16   28 1   
@<TRIPOS>SUBSTRUCTURE
     1 mol         1 TEMP              0 ****  ****    0 ROOT
